third_party/gridlab-d-networks/R3-12.47-3/R3-12.47-3.glm
// $Id: R3-12.47-3.glm
// 12.47 kV feeder

// Notes AE: 
// - Taken from https://sourceforge.net/p/gridlab-d/code/HEAD/tree/Taxonomy_Feeders/
// - Commented out recorders

//*********************************************
clock{
     timezone EST+8EDT;
     timestamp '2000-01-01 0:00:00';
     stoptime '2000-01-01 1:00:00';

}

#set profiler=1
//*********************************************
// modules
module tape;
module powerflow{
     solver_method NR;
      default_maximum_voltage_error 1e-6;
};

#include "uot_data.glm";

//*********************************************
object regulator:1 {
     name R3-12-47-3_reg_1;
     from R3-12-47-3_node_2001;
     to R3-12-47-3_meter_109;
     phases ABCN;
     configuration feeder_reg_cfg;
}

object regulator:2 {
     name R3-12-47-3_reg_2;
     from R3-12-47-3_node_871_2;
     to R3-12-47-3_node_885;
     phases ABCN;
     configuration voltage_reg_cfg;
}

object regulator_configuration:12602 {
     name feeder_reg_cfg;
     connect_type WYE_WYE;
     Control OUTPUT_VOLTAGE;
     band_center 7500.0;
     band_width 120;
     time_delay 30;
     raise_taps 16;
     lower_taps 16;
     regulation 0.10;
     tap_pos_A 0;
     tap_pos_B 0;
     tap_pos_C 0;
}

object regulator_configuration:12603 {
     name voltage_reg_cfg;
     connect_type WYE_WYE;
     Control OUTPUT_VOLTAGE;
     band_center 7500.0;
     band_width 120;
     time_delay 30;
     raise_taps 16;
     lower_taps 16;
     regulation 0.10;
     tap_pos_A 0;
     tap_pos_B 0;
     tap_pos_C 0;
}

object capacitor:12598 {
     name R3-12-47-3_cap_1;
     phases ABCN;
     pt_phase A;
     parent R3-12-47-3_node_518;
     phases_connected ABC;
     control VOLT;
     voltage_set_high 7300;
     voltage_set_low 7100;
     capacitor_A 0.3 MVAr;
     capacitor_B 0.3 MVAr;
     capacitor_C 0.3 MVAr;
     control_level INDIVIDUAL;
     time_delay 30.0;
     dwell_time 30.0;
     cap_nominal_voltage 7200;
     nominal_voltage 7200;
}

object capacitor:12599 {
     name R3-12-47-3_cap_2;
     phases ABCN;
     pt_phase A;
     parent R3-12-47-3_node_1988;
     phases_connected ABC;
     control VOLT;
     voltage_set_high 7300;
     voltage_set_low 7100;
     capacitor_A 0.2 MVAr;
     capacitor_B 0.2 MVAr;
     capacitor_C 0.2 MVAr;
     control_level INDIVIDUAL;
     time_delay 30.0;
     dwell_time 30.0;
     cap_nominal_voltage 7200;
     nominal_voltage 7200;
}

object fuse:12437 {
     name R3-12-47-3_fuse_1;
     phases BCN;
     from R3-12-47-3_node_12;
     to R3-12-47-3_node_13;
     current_limit 50000;// 15;
     status CLOSED;
}

object fuse:12438 {
     name R3-12-47-3_fuse_2;
     phases ABCN;
     from R3-12-47-3_node_4;
     to R3-12-47-3_node_16;
     current_limit 50000;// 150;
     status CLOSED;
}

object fuse:12439 {
     name R3-12-47-3_fuse_3;
     phases BCN;
     from R3-12-47-3_node_32;
     to R3-12-47-3_node_33;
     current_limit 50000;// 40;
     status CLOSED;
}

object fuse:12440 {
     name R3-12-47-3_fuse_4;
     phases BCN;
     from R3-12-47-3_node_87;
     to R3-12-47-3_node_88;
     current_limit 50000;// 10;
     status CLOSED;
}

object fuse:12441 {
     name R3-12-47-3_fuse_5;
     phases BCN;
     from R3-12-47-3_node_99;
     to R3-12-47-3_node_100;
     current_limit 50000;// 20;
     status CLOSED;
}

object fuse:12442 {
     name R3-12-47-3_fuse_6;
     phases ABCN;
     from R3-12-47-3_node_132;
     to R3-12-47-3_node_133;
     current_limit 50000;// 15;
     status CLOSED;
}

object fuse:12443 {
     name R3-12-47-3_fuse_7;
     phases ABCN;
     from R3-12-47-3_node_151;
     to R3-12-47-3_node_152;
     current_limit 50000;// 100;
     status CLOSED;
}

object fuse:12444 {
     name R3-12-47-3_fuse_8;
     phases ACN;
     from R3-12-47-3_node_163;
     to R3-12-47-3_node_164;
     current_limit 50000;// 15;
     status CLOSED;
}

object fuse:12445 {
     name R3-12-47-3_fuse_9;
     phases ACN;
     from R3-12-47-3_node_176;
     to R3-12-47-3_node_177;
     current_limit 50000;// 10;
     status CLOSED;
}

object fuse:12446 {
     name R3-12-47-3_fuse_10;
     phases ACN;
     from R3-12-47-3_node_188;
     to R3-12-47-3_node_189;
     current_limit 50000;// 15;
     status CLOSED;
}

object fuse:12447 {
     name R3-12-47-3_fuse_11;
     phases ABCN;
     from R3-12-47-3_node_224;
     to R3-12-47-3_node_225;
     current_limit 50000;// 100;
     status CLOSED;
}

object fuse:12448 {
     name R3-12-47-3_fuse_12;
     phases ACN;
     from R3-12-47-3_node_243;
     to R3-12-47-3_node_244;
     current_limit 50000;// 15;
     status CLOSED;
}

object fuse:12449 {
     name R3-12-47-3_fuse_13;
     phases AN;
     from R3-12-47-3_node_252;
     to R3-12-47-3_node_253;
     current_limit 50000;// 30;
     status CLOSED;
}

object fuse:12450 {
     name R3-12-47-3_fuse_14;
     phases CN;
     from R3-12-47-3_node_266;
     to R3-12-47-3_node_279;
     current_limit 50000;// 25;
     status CLOSED;
}

object fuse:12451 {
     name R3-12-47-3_fuse_15;
     phases ABCN;
     from R3-12-47-3_node_287;
     to R3-12-47-3_node_288;
     current_limit 50000;// 75;
     status CLOSED;
}

object fuse:12452 {
     name R3-12-47-3_fuse_16;
     phases ACN;
     from R3-12-47-3_node_280;
     to R3-12-47-3_node_296;
     current_limit 50000;// 15;
     status CLOSED;
}

object fuse:12453 {
     name R3-12-47-3_fuse_17;
     phases ABCN;
     from R3-12-47-3_node_302;
     to R3-12-47-3_node_303;
     current_limit 50000;// 15;
     status CLOSED;
}

object fuse:12454 {
     name R3-12-47-3_fuse_18;
     phases ACN;
     from R3-12-47-3_node_305;
     to R3-12-47-3_node_306;
     current_limit 50000;// 15;
     status CLOSED;
}

object fuse:12455 {
     name R3-12-47-3_fuse_19;
     phases ABCN;
     from R3-12-47-3_node_319;
     to R3-12-47-3_node_320;
     current_limit 50000;// 20;
     status CLOSED;
}

object fuse:12456 {
     name R3-12-47-3_fuse_20;
     phases ABCN;
     from R3-12-47-3_node_324;
     to R3-12-47-3_node_325;
     current_limit 50000;// 30;
     status CLOSED;
}

object fuse:12457 {
     name R3-12-47-3_fuse_21;
     phases BN;
     from R3-12-47-3_node_310;
     to R3-12-47-3_node_326;
     current_limit 50000;// 15;
     status CLOSED;
}

object fuse:12458 {
     name R3-12-47-3_fuse_22;
     phases ABN;
     from R3-12-47-3_node_343;
     to R3-12-47-3_node_344;
     current_limit 50000;// 25;
     status CLOSED;
}

object fuse:12459 {
     name R3-12-47-3_fuse_23;
     phases AN;
     from R3-12-47-3_node_357;
     to R3-12-47-3_node_358;
     current_limit 50000;// 10;
     status CLOSED;
}

object fuse:12460 {
     name R3-12-47-3_fuse_24;
     phases AN;
     from R3-12-47-3_node_364;
     to R3-12-47-3_node_365;
     current_limit 50000;// 25;
     status CLOSED;
}

object fuse:12461 {
     name R3-12-47-3_fuse_25;
     phases BCN;
     from R3-12-47-3_node_368;
     to R3-12-47-3_node_369;
     current_limit 50000;// 50;
     status CLOSED;
}

object fuse:12462 {
     name R3-12-47-3_fuse_26;
     phases BCN;
     from R3-12-47-3_node_372;
     to R3-12-47-3_node_373;
     current_limit 50000;// 15;
     status CLOSED;
}

object fuse:12463 {
     name R3-12-47-3_fuse_27;
     phases CN;
     from R3-12-47-3_node_379;
     to R3-12-47-3_node_380;
     current_limit 50000;// 10;
     status CLOSED;
}

object fuse:12464 {
     name R3-12-47-3_fuse_28;
     phases ACN;
     from R3-12-47-3_node_406;
     to R3-12-47-3_node_407;
     current_limit 50000;// 30;
     status CLOSED;
}

object fuse:12465 {
     name R3-12-47-3_fuse_29;
     phases ABN;
     from R3-12-47-3_node_425;
     to R3-12-47-3_node_426;
     current_limit 50000;// 10;
     status CLOSED;
}

object fuse:12466 {
     name R3-12-47-3_fuse_30;
     phases ACN;
     from R3-12-47-3_node_443;
     to R3-12-47-3_node_444;
     current_limit 50000;// 25;
     status CLOSED;
}

object fuse:12467 {
     name R3-12-47-3_fuse_31;
     phases ABCN;
     from R3-12-47-3_node_459;
     to R3-12-47-3_node_460;
     current_limit 50000;// 150;
     status CLOSED;
}

object fuse:12468 {
     name R3-12-47-3_fuse_32;
     phases ACN;
     from R3-12-47-3_node_486;
     to R3-12-47-3_node_487;
     current_limit 50000;// 30;
     status CLOSED;
}

object fuse:12469 {
     name R3-12-47-3_fuse_33;
     phases ACN;
     from R3-12-47-3_node_495;
     to R3-12-47-3_node_496;
     current_limit 50000;// 15;
     status CLOSED;
}

object fuse:12470 {
     name R3-12-47-3_fuse_34;
     phases BCN;
     from R3-12-47-3_node_498;
     to R3-12-47-3_node_499;
     current_limit 50000;// 15;
     status CLOSED;
}

object fuse:12471 {
     name R3-12-47-3_fuse_35;
     phases ABN;
     from R3-12-47-3_node_513;
     to R3-12-47-3_node_514;
     current_limit 50000;// 25;
     status CLOSED;
}

object fuse:12472 {
     name R3-12-47-3_fuse_36;
     phases ABN;
     from R3-12-47-3_node_535;
     to R3-12-47-3_node_536;
     current_limit 50000;// 60;
     status CLOSED;
}

object fuse:12473 {
     name R3-12-47-3_fuse_37;
     phases ABN;
     from R3-12-47-3_node_554;
     to R3-12-47-3_node_555;
     current_limit 50000;// 20;
     status CLOSED;
}

object fuse:12474 {
     name R3-12-47-3_fuse_38;
     phases ABN;
     from R3-12-47-3_node_569;
     to R3-12-47-3_node_570;
     current_limit 50000;// 15;
     status CLOSED;
}

object fuse:12475 {
     name R3-12-47-3_fuse_39;
     phases ABN;
     from R3-12-47-3_node_597;
     to R3-12-47-3_node_598;
     current_limit 50000;// 10;
     status CLOSED;
}

object fuse:12476 {
     name R3-12-47-3_fuse_40;
     phases BCN;
     from R3-12-47-3_node_612;
     to R3-12-47-3_node_613;
     current_limit 50000;// 30;
     status CLOSED;
}

object fuse:12477 {
     name R3-12-47-3_fuse_41;
     phases ACN;
     from R3-12-47-3_node_619;
     to R3-12-47-3_node_620;
     current_limit 50000;// 50;
     status CLOSED;
}

object fuse:12478 {
     name R3-12-47-3_fuse_42;
     phases ACN;
     from R3-12-47-3_node_629;
     to R3-12-47-3_node_630;
     current_limit 50000;// 25;
     status CLOSED;
}

object fuse:12479 {
     name R3-12-47-3_fuse_43;
     phases ACN;
     from R3-12-47-3_node_644;
     to R3-12-47-3_node_645;
     current_limit 50000;// 30;
     status CLOSED;
}

object fuse:12480 {
     name R3-12-47-3_fuse_44;
     phases ABCN;
     from R3-12-47-3_node_704;
     to R3-12-47-3_node_705;
     current_limit 50000;// 30;
     status CLOSED;
}

object fuse:12481 {
     name R3-12-47-3_fuse_45;
     phases ABCN;
     from R3-12-47-3_node_715;
     to R3-12-47-3_node_716;
     current_limit 50000;// 20;
     status CLOSED;
}

object fuse:12482 {
     name R3-12-47-3_fuse_46;
     phases ABCN;
     from R3-12-47-3_node_712;
     to R3-12-47-3_node_724;
     current_limit 50000;// 50;
     status CLOSED;
}

object fuse:12483 {
     name R3-12-47-3_fuse_47;
     phases ACN;
     from R3-12-47-3_node_750;
     to R3-12-47-3_node_751;
     current_limit 50000;// 15;
     status CLOSED;
}

object fuse:12484 {
     name R3-12-47-3_fuse_48;
     phases ACN;
     from R3-12-47-3_node_762;
     to R3-12-47-3_node_763;
     current_limit 50000;// 15;
     status CLOSED;
}

object fuse:12485 {
     name R3-12-47-3_fuse_49;
     phases ACN;
     from R3-12-47-3_node_766;
     to R3-12-47-3_node_767;
     current_limit 50000;// 15;
     status CLOSED;
}

object fuse:12486 {
     name R3-12-47-3_fuse_50;
     phases ABCN;
     from R3-12-47-3_node_700;
     to R3-12-47-3_node_779;
     current_limit 50000;// 150;
     status CLOSED;
}

object fuse:12487 {
     name R3-12-47-3_fuse_51;
     phases ACN;
     from R3-12-47-3_node_783;
     to R3-12-47-3_node_784;
     current_limit 50000;// 15;
     status CLOSED;
}

object fuse:12488 {
     name R3-12-47-3_fuse_52;
     phases ACN;
     from R3-12-47-3_node_787;
     to R3-12-47-3_node_788;
     current_limit 50000;// 10;
     status CLOSED;
}

object fuse:12489 {
     name R3-12-47-3_fuse_53;
     phases ACN;
     from R3-12-47-3_node_792;
     to R3-12-47-3_node_793;
     current_limit 50000;// 15;
     status CLOSED;
}

object fuse:12490 {
     name R3-12-47-3_fuse_54;
     phases BN;
     from R3-12-47-3_node_796;
     to R3-12-47-3_node_808;
     current_limit 50000;// 15;
     status CLOSED;
}

object fuse:12491 {
     name R3-12-47-3_fuse_55;
     phases AN;
     from R3-12-47-3_node_811;
     to R3-12-47-3_node_812;
     current_limit 50000;// 20;
     status CLOSED;
}

object fuse:12492 {
     name R3-12-47-3_fuse_56;
     phases ACN;
     from R3-12-47-3_node_820;
     to R3-12-47-3_node_821;
     current_limit 50000;// 75;
     status CLOSED;
}

object fuse:12493 {
     name R3-12-47-3_fuse_57;
     phases ACN;
     from R3-12-47-3_node_829;
     to R3-12-47-3_node_830;
     current_limit 50000;// 15;
     status CLOSED;
}

object fuse:12494 {
     name R3-12-47-3_fuse_58;
     phases ACN;
     from R3-12-47-3_node_837;
     to R3-12-47-3_node_838;
     current_limit 50000;// 15;
     status CLOSED;
}

object fuse:12495 {
     name R3-12-47-3_fuse_59;
     phases ACN;
     from R3-12-47-3_node_859;
     to R3-12-47-3_node_860;
     current_limit 50000;// 10;
     status CLOSED;
}

object fuse:12496 {
     name R3-12-47-3_fuse_60;
     phases ABN;
     from R3-12-47-3_node_867;
     to R3-12-47-3_node_868;
     current_limit 50000;// 10;
     status CLOSED;
}

object fuse:12497 {
     name R3-12-47-3_fuse_61;
     phases ACN;
     from R3-12-47-3_node_809;
     to R3-12-47-3_node_870;
     current_limit 50000;// 150;
     status CLOSED;
}

object fuse:12498 {
     name R3-12-47-3_fuse_62;
     phases ABN;
     from R3-12-47-3_node_880;
     to R3-12-47-3_node_881;
     current_limit 50000;// 15;
     status CLOSED;
}

object fuse:12499 {
     name R3-12-47-3_fuse_63;
     phases ABCN;
     from R3-12-47-3_node_890;
     to R3-12-47-3_node_891;
     current_limit 50000;// 50;
     status CLOSED;
}

object fuse:12500 {
     name R3-12-47-3_fuse_64;
     phases ABN;
     from R3-12-47-3_node_895;
     to R3-12-47-3_node_896;
     current_limit 50000;// 15;
     status CLOSED;
}

object fuse:12501 {
     name R3-12-47-3_fuse_65;
     phases ABN;
     from R3-12-47-3_node_903;
     to R3-12-47-3_node_904;
     current_limit 50000;// 15;
     status CLOSED;
}

object fuse:12502 {
     name R3-12-47-3_fuse_66;
     phases ABCN;
     from R3-12-47-3_node_907;
     to R3-12-47-3_node_908;
     current_limit 50000;// 100;
     status CLOSED;
}

object fuse:12503 {
     name R3-12-47-3_fuse_67;
     phases ABCN;
     from R3-12-47-3_node_913;
     to R3-12-47-3_node_914;
     current_limit 50000;// 15;
     status CLOSED;
}

object fuse:12504 {
     name R3-12-47-3_fuse_68;
     phases BCN;
     from R3-12-47-3_node_925;
     to R3-12-47-3_node_926;
     current_limit 50000;// 50;
     status CLOSED;
}

object fuse:12505 {
     name R3-12-47-3_fuse_69;
     phases BCN;
     from R3-12-47-3_node_930;
     to R3-12-47-3_node_931;
     current_limit 50000;// 15;
     status CLOSED;
}

object fuse:12506 {
     name R3-12-47-3_fuse_70;
     phases BCN;
     from R3-12-47-3_node_945;
     to R3-12-47-3_node_946;
     current_limit 50000;// 10;
     status CLOSED;
}

object fuse:12507 {
     name R3-12-47-3_fuse_71;
     phases BCN;
     from R3-12-47-3_node_949;
     to R3-12-47-3_node_950;
     current_limit 50000;// 30;
     status CLOSED;
}

object fuse:12508 {
     name R3-12-47-3_fuse_72;
     phases BCN;
     from R3-12-47-3_node_958;
     to R3-12-47-3_node_959;
     current_limit 50000;// 15;
     status CLOSED;
}

object fuse:12509 {
     name R3-12-47-3_fuse_73;
     phases ACN;
     from R3-12-47-3_node_971;
     to R3-12-47-3_node_972;
     current_limit 50000;// 25;
     status CLOSED;
}

object fuse:12510 {
     name R3-12-47-3_fuse_74;
     phases BCN;
     from R3-12-47-3_node_980;
     to R3-12-47-3_node_981;
     current_limit 50000;// 15;
     status CLOSED;
}

object fuse:12511 {
     name R3-12-47-3_fuse_75;
     phases ABCN;
     from R3-12-47-3_node_994;
     to R3-12-47-3_node_1014;
     current_limit 50000;// 15;
     status CLOSED;
}

object fuse:12512 {
     name R3-12-47-3_fuse_76;
     phases BCN;
     from R3-12-47-3_node_1017;
     to R3-12-47-3_node_1018;
     current_limit 50000;// 10;
     status CLOSED;
}

object fuse:12513 {
     name R3-12-47-3_fuse_77;
     phases ABN;
     from R3-12-47-3_node_1037;
     to R3-12-47-3_node_1038;
     current_limit 50000;// 50;
     status CLOSED;
}

object fuse:12514 {
     name R3-12-47-3_fuse_78;
     phases ABN;
     from R3-12-47-3_node_1047;
     to R3-12-47-3_node_1048;
     current_limit 50000;// 15;
     status CLOSED;
}

object fuse:12515 {
     name R3-12-47-3_fuse_79;
     phases ABN;
     from R3-12-47-3_node_1049;
     to R3-12-47-3_node_1050;
     current_limit 50000;// 25;
     status CLOSED;
}

object fuse:12516 {
     name R3-12-47-3_fuse_80;
     phases BCN;
     from R3-12-47-3_node_1065;
     to R3-12-47-3_node_1066;
     current_limit 50000;// 25;
     status CLOSED;
}

object fuse:12517 {
     name R3-12-47-3_fuse_81;
     phases ABCN;
     from R3-12-47-3_node_1085;
     to R3-12-47-3_node_1086;
     current_limit 50000;// 75;
     status CLOSED;
}

object fuse:12518 {
     name R3-12-47-3_fuse_82;
     phases ABN;
     from R3-12-47-3_node_1129;
     to R3-12-47-3_node_1130;
     current_limit 50000;// 10;
     status CLOSED;
}

object fuse:12519 {
     name R3-12-47-3_fuse_83;
     phases ABN;
     from R3-12-47-3_node_1133;
     to R3-12-47-3_node_1134;
     current_limit 50000;// 20;
     status CLOSED;
}

object fuse:12520 {
     name R3-12-47-3_fuse_84;
     phases ABN;
     from R3-12-47-3_node_1156;
     to R3-12-47-3_node_1157;
     current_limit 50000;// 10;
     status CLOSED;
}

object fuse:12521 {
     name R3-12-47-3_fuse_85;
     phases ABN;
     from R3-12-47-3_node_1163;
     to R3-12-47-3_node_1164;
     current_limit 50000;// 10;
     status CLOSED;
}

object fuse:12522 {
     name R3-12-47-3_fuse_86;
     phases ABN;
     from R3-12-47-3_node_1126;
     to R3-12-47-3_node_1174;
     current_limit 50000;// 100;
     status CLOSED;
}

object fuse:12523 {
     name R3-12-47-3_fuse_87;
     phases BCN;
     from R3-12-47-3_node_1217;
     to R3-12-47-3_node_1218;
     current_limit 50000;// 15;
     status CLOSED;
}

object fuse:12524 {
     name R3-12-47-3_fuse_88;
     phases ABCN;
     from R3-12-47-3_node_1227;
     to R3-12-47-3_node_1228;
     current_limit 50000;// 100;
     status CLOSED;
}

object fuse:12525 {
     name R3-12-47-3_fuse_89;
     phases BCN;
     from R3-12-47-3_node_1232;
     to R3-12-47-3_node_1233;
     current_limit 50000;// 10;
     status CLOSED;
}

object fuse:12526 {
     name R3-12-47-3_fuse_90;
     phases BCN;
     from R3-12-47-3_node_1266;
     to R3-12-47-3_node_1267;
     current_limit 50000;// 10;
     status CLOSED;
}

object fuse:12527 {
     name R3-12-47-3_fuse_91;
     phases BCN;
     from R3-12-47-3_node_1282;
     to R3-12-47-3_node_1285;
     current_limit 50000;// 10;
     status CLOSED;
}

object fuse:12528 {
     name R3-12-47-3_fuse_92;
     phases BCN;
     from R3-12-47-3_node_1289;
     to R3-12-47-3_node_1290;
     current_limit 50000;// 15;
     status CLOSED;
}

object fuse:12529 {
     name R3-12-47-3_fuse_93;
     phases ABN;
     from R3-12-47-3_node_1304;
     to R3-12-47-3_node_1305;
     current_limit 50000;// 50;
     status CLOSED;
}

object fuse:12530 {
     name R3-12-47-3_fuse_94;
     phases ABN;
     from R3-12-47-3_node_1306;
     to R3-12-47-3_node_1307;
     current_limit 50000;// 18;
     status CLOSED;
}

object fuse:12531 {
     name R3-12-47-3_fuse_95;
     phases ACN;
     from R3-12-47-3_node_1317;
     to R3-12-47-3_node_1318;
     current_limit 50000;// 15;
     status CLOSED;
}

object fuse:12532 {
     name R3-12-47-3_fuse_96;
     phases ACN;
     from R3-12-47-3_node_1324;
     to R3-12-47-3_node_1325;
     current_limit 50000;// 60;
     status CLOSED;
}

object fuse:12533 {
     name R3-12-47-3_fuse_97;
     phases ABCN;
     from R3-12-47-3_node_1310;
     to R3-12-47-3_node_1331;
     current_limit 50000;// 30;
     status CLOSED;
}

object fuse:12534 {
     name R3-12-47-3_fuse_98;
     phases ABN;
     from R3-12-47-3_node_1356;
     to R3-12-47-3_node_1357;
     current_limit 50000;// 10;
     status CLOSED;
}

object fuse:12535 {
     name R3-12-47-3_fuse_99;
     phases ACN;
     from R3-12-47-3_node_1388;
     to R3-12-47-3_node_1389;
     current_limit 50000;// 15;
     status CLOSED;
}

object fuse:12536 {
     name R3-12-47-3_fuse_100;
     phases ABN;
     from R3-12-47-3_node_1392;
     to R3-12-47-3_node_1393;
     current_limit 50000;// 100;
     status CLOSED;
}

object fuse:12537 {
     name R3-12-47-3_fuse_101;
     phases ABN;
     from R3-12-47-3_node_1399;
     to R3-12-47-3_node_1400;
     current_limit 50000;// 30;
     status CLOSED;
}

object fuse:12538 {
     name R3-12-47-3_fuse_102;
     phases BCN;
     from R3-12-47-3_node_1426;
     to R3-12-47-3_node_1427;
     current_limit 50000;// 15;
     status CLOSED;
}

object fuse:12539 {
     name R3-12-47-3_fuse_103;
     phases BCN;
     from R3-12-47-3_node_1434;
     to R3-12-47-3_node_1435;
     current_limit 50000;// 20;
     status CLOSED;
}

object fuse:12540 {
     name R3-12-47-3_fuse_104;
     phases ACN;
     from R3-12-47-3_node_1420;
     to R3-12-47-3_node_1436;
     current_limit 50000;// 15;
     status CLOSED;
}

object fuse:12541 {
     name R3-12-47-3_fuse_105;
     phases AN;
     from R3-12-47-3_node_1450;
     to R3-12-47-3_node_1451;
     current_limit 50000;// 80;
     status CLOSED;
}

object fuse:12542 {
     name R3-12-47-3_fuse_106;
     phases ABCN;
     from R3-12-47-3_node_1474;
     to R3-12-47-3_node_1475;
     current_limit 50000;// 80;
     status CLOSED;
}

object fuse:12543 {
     name R3-12-47-3_fuse_107;
     phases ABCN;
     from R3-12-47-3_node_1505;
     to R3-12-47-3_node_1506;
     current_limit 50000;// 40;
     status CLOSED;
}

object fuse:12544 {
     name R3-12-47-3_fuse_108;
     phases BCN;
     from R3-12-47-3_node_1511;
     to R3-12-47-3_node_1512;
     current_limit 50000;// 10;
     status CLOSED;
}

object fuse:12545 {
     name R3-12-47-3_fuse_109;
     phases ABN;
     from R3-12-47-3_node_1523;
     to R3-12-47-3_node_1524;
     current_limit 50000;// 15;
     status CLOSED;
}

object fuse:12546 {
     name R3-12-47-3_fuse_110;
     phases ABN;
     from R3-12-47-3_node_1530;
     to R3-12-47-3_node_1531;
     current_limit 50000;// 15;
     status CLOSED;
}

object fuse:12547 {
     name R3-12-47-3_fuse_111;
     phases ABCN;
     from R3-12-47-3_node_1542;
     to R3-12-47-3_node_1543;
     current_limit 50000;// 15;
     status CLOSED;
}

object fuse:12548 {
     name R3-12-47-3_fuse_112;
     phases ABCN;
     from R3-12-47-3_node_1550;
     to R3-12-47-3_node_1551;
     current_limit 50000;// 100;
     status CLOSED;
}

object fuse:12549 {
     name R3-12-47-3_fuse_113;
     phases ABCN;
     from R3-12-47-3_node_1555;
     to R3-12-47-3_node_1556;
     current_limit 50000;// 60;
     status CLOSED;
}

object fuse:12550 {
     name R3-12-47-3_fuse_114;
     phases ABN;
     from R3-12-47-3_node_1580;
     to R3-12-47-3_node_1581;
     current_limit 50000;// 15;
     status CLOSED;
}

object fuse:12551 {
     name R3-12-47-3_fuse_115;
     phases ABN;
     from R3-12-47-3_node_1588;
     to R3-12-47-3_node_1589;
     current_limit 50000;// 25;
     status CLOSED;
}

object fuse:12552 {
     name R3-12-47-3_fuse_116;
     phases ABN;
     from R3-12-47-3_node_1612;
     to R3-12-47-3_node_1613;
     current_limit 50000;// 25;
     status CLOSED;
}

object fuse:12553 {
     name R3-12-47-3_fuse_117;
     phases ABN;
     from R3-12-47-3_node_1633;
     to R3-12-47-3_node_1634;
     current_limit 50000;// 40;
     status CLOSED;
}

object fuse:12554 {
     name R3-12-47-3_fuse_118;
     phases ABN;
     from R3-12-47-3_node_1650;
     to R3-12-47-3_node_1651;
     current_limit 50000;// 15;
     status CLOSED;
}

object fuse:12555 {
     name R3-12-47-3_fuse_119;
     phases BCN;
     from R3-12-47-3_node_1656;
     to R3-12-47-3_node_1657;
     current_limit 50000;// 15;
     status CLOSED;
}

object fuse:12556 {
     name R3-12-47-3_fuse_120;
     phases ABN;
     from R3-12-47-3_node_1665;
     to R3-12-47-3_node_1666;
     current_limit 50000;// 15;
     status CLOSED;
}

object fuse:12557 {
     name R3-12-47-3_fuse_121;
     phases ABCN;
     from R3-12-47-3_node_1679;
     to R3-12-47-3_node_1680;
     current_limit 50000;// 75;
     status CLOSED;
}

object fuse:12558 {
     name R3-12-47-3_fuse_122;
     phases BCN;
     from R3-12-47-3_node_1688;
     to R3-12-47-3_node_1689;
     current_limit 50000;// 75;
     status CLOSED;
}

object fuse:12559 {
     name R3-12-47-3_fuse_123;
     phases BCN;
     from R3-12-47-3_node_1699;
     to R3-12-47-3_node_1701;
     current_limit 50000;// 15;
     status CLOSED;
}

object fuse:12560 {
     name R3-12-47-3_fuse_124;
     phases ACN;
     from R3-12-47-3_node_1726;
     to R3-12-47-3_node_1727;
     current_limit 50000;// 10;
     status CLOSED;
}

object fuse:12561 {
     name R3-12-47-3_fuse_125;
     phases ABCN;
     from R3-12-47-3_node_1731;
     to R3-12-47-3_node_1732;
     current_limit 50000;// 75;
     status CLOSED;
}

object fuse:12562 {
     name R3-12-47-3_fuse_126;
     phases CN;
     from R3-12-47-3_node_1723;
     to R3-12-47-3_node_1736;
     current_limit 50000;// 30;
     status CLOSED;
}

object fuse:12563 {
     name R3-12-47-3_fuse_127;
     phases ABN;
     from R3-12-47-3_node_1748;
     to R3-12-47-3_node_1759;
     current_limit 50000;// 150;
     status CLOSED;
}

object fuse:12564 {
     name R3-12-47-3_fuse_128;
     phases ABN;
     from R3-12-47-3_node_1768;
     to R3-12-47-3_node_1769;
     current_limit 50000;// 15;
     status CLOSED;
}

object fuse:12565 {
     name R3-12-47-3_fuse_129;
     phases AN;
     from R3-12-47-3_node_1760;
     to R3-12-47-3_node_1772;
     current_limit 50000;// 15;
     status CLOSED;
}

object fuse:12566 {
     name R3-12-47-3_fuse_130;
     phases ABCN;
     from R3-12-47-3_node_1778;
     to R3-12-47-3_node_1779;
     current_limit 50000;// 50;
     status CLOSED;
}

object fuse:12567 {
     name R3-12-47-3_fuse_131;
     phases ABCN;
     from R3-12-47-3_node_1781;
     to R3-12-47-3_node_1782;
     current_limit 50000;// 50;
     status CLOSED;
}

object fuse:12568 {
     name R3-12-47-3_fuse_132;
     phases ABCN;
     from R3-12-47-3_node_1800;
     to R3-12-47-3_node_1801;
     current_limit 50000;// 15;
     status CLOSED;
}

object fuse:12569 {
     name R3-12-47-3_fuse_133;
     phases ABN;
     from R3-12-47-3_node_1822;
     to R3-12-47-3_node_1823;
     current_limit 50000;// 15;
     status CLOSED;
}

object fuse:12570 {
     name R3-12-47-3_fuse_134;
     phases ACN;
     from R3-12-47-3_node_1831;
     to R3-12-47-3_node_1832;
     current_limit 50000;// 25;
     status CLOSED;
}

object fuse:12571 {
     name R3-12-47-3_fuse_135;
     phases ABCN;
     from R3-12-47-3_node_1712;
     to R3-12-47-3_node_1833;
     current_limit 50000;// 125;
     status CLOSED;
}

object fuse:12572 {
     name R3-12-47-3_fuse_136;
     phases ABCN;
     from R3-12-47-3_node_1853;
     to R3-12-47-3_node_1854;
     current_limit 50000;// 15;
     status CLOSED;
}

object fuse:12573 {
     name R3-12-47-3_fuse_137;
     phases BCN;
     from R3-12-47-3_node_1872;
     to R3-12-47-3_node_1873;
     current_limit 50000;// 10;
     status CLOSED;
}

object fuse:12574 {
     name R3-12-47-3_fuse_138;
     phases BCN;
     from R3-12-47-3_node_1927;
     to R3-12-47-3_node_1928;
     current_limit 50000;// 25;
     status CLOSED;
}

object fuse:12575 {
     name R3-12-47-3_fuse_139;
     phases BCN;
     from R3-12-47-3_node_1930;
     to R3-12-47-3_node_1931;
     current_limit 50000;// 15;
     status CLOSED;
}

object fuse:12576 {
     name R3-12-47-3_fuse_140;
     phases BCN;
     from R3-12-47-3_node_1978;
     to R3-12-47-3_node_1979;
     current_limit 50000;// 15;
     status CLOSED;
}

object line_configuration:24 {
     conductor_A overhead_line_conductor:2;
     conductor_B overhead_line_conductor:2;
     conductor_C overhead_line_conductor:2;
     conductor_N overhead_line_conductor:2;
     spacing line_spacing:16;
}

object line_configuration:25 {
     conductor_A overhead_line_conductor:3;
     conductor_B overhead_line_conductor:3;
     conductor_C overhead_line_conductor:3;
     conductor_N overhead_line_conductor:3;
     spacing line_spacing:16;
}

object line_configuration:26 {
     conductor_A overhead_line_conductor:3;
     conductor_C overhead_line_conductor:3;
     conductor_N overhead_line_conductor:3;
     spacing line_spacing:17;
}

object line_configuration:27 {
     conductor_A underground_line_conductor:4;
     conductor_C underground_line_conductor:4;
     conductor_N underground_line_conductor:4;
     spacing line_spacing:17;
}

object line_configuration:28 {
     conductor_B overhead_line_conductor:3;
     conductor_C overhead_line_conductor:3;
     conductor_N overhead_line_conductor:3;
     spacing line_spacing:18;
}

object line_configuration:29 {
     conductor_A underground_line_conductor:5;
     conductor_B underground_line_conductor:5;
     conductor_C underground_line_conductor:5;
     conductor_N underground_line_conductor:5;
     spacing line_spacing:16;
}

object line_configuration:30 {
     conductor_A underground_line_conductor:6;
     conductor_B underground_line_conductor:6;
     conductor_C underground_line_conductor:6;
     conductor_N underground_line_conductor:6;
     spacing line_spacing:16;
}

object line_configuration:31 {
     conductor_B underground_line_conductor:7;
     conductor_C underground_line_conductor:7;
     conductor_N underground_line_conductor:7;
     spacing line_spacing:18;
}

object line_configuration:32 {
     conductor_A overhead_line_conductor:8;
     conductor_B overhead_line_conductor:8;
     conductor_C overhead_line_conductor:8;
     conductor_N overhead_line_conductor:8;
     spacing line_spacing:16;
}

object line_configuration:33 {
     conductor_A underground_line_conductor:7;
     conductor_B underground_line_conductor:7;
     conductor_C underground_line_conductor:7;
     conductor_N underground_line_conductor:7;
     spacing line_spacing:16;
}

object line_configuration:34 {
     conductor_A overhead_line_conductor:8;
     conductor_B overhead_line_conductor:8;
     conductor_N overhead_line_conductor:8;
     spacing line_spacing:19;
}

object line_configuration:35 {
     conductor_A underground_line_conductor:9;
     conductor_C underground_line_conductor:9;
     conductor_N underground_line_conductor:9;
     spacing line_spacing:17;
}

object line_configuration:36 {
     conductor_A overhead_line_conductor:8;
     conductor_C overhead_line_conductor:8;
     conductor_N overhead_line_conductor:8;
     spacing line_spacing:17;
}

object line_configuration:37 {
     conductor_A overhead_line_conductor:10;
     conductor_C overhead_line_conductor:10;
     conductor_N overhead_line_conductor:10;
     spacing line_spacing:17;
}

object line_configuration:38 {
     conductor_C underground_line_conductor:4;
     conductor_N underground_line_conductor:4;
     spacing line_spacing:20;
}

object line_configuration:39 {
     conductor_B underground_line_conductor:4;
     conductor_N underground_line_conductor:4;
     spacing line_spacing:21;
}

object line_configuration:40 {
     conductor_A overhead_line_conductor:3;
     conductor_B overhead_line_conductor:3;
     conductor_N overhead_line_conductor:3;
     spacing line_spacing:19;
}

object line_configuration:41 {
     conductor_B underground_line_conductor:9;
     conductor_N underground_line_conductor:9;
     spacing line_spacing:21;
}

object line_configuration:42 {
     conductor_A underground_line_conductor:4;
     conductor_N underground_line_conductor:4;
     spacing line_spacing:22;
}

object line_configuration:43 {
     conductor_C underground_line_conductor:7;
     conductor_N underground_line_conductor:7;
     spacing line_spacing:20;
}

object line_configuration:44 {
     conductor_B overhead_line_conductor:8;
     conductor_C overhead_line_conductor:8;
     conductor_N overhead_line_conductor:8;
     spacing line_spacing:18;
}

object line_configuration:45 {
     conductor_A overhead_line_conductor:11;
     conductor_B overhead_line_conductor:11;
     conductor_C overhead_line_conductor:11;
     conductor_N overhead_line_conductor:11;
     spacing line_spacing:16;
}

object line_configuration:46 {
     conductor_A underground_line_conductor:4;
     conductor_B underground_line_conductor:4;
     conductor_C underground_line_conductor:4;
     conductor_N underground_line_conductor:4;
     spacing line_spacing:16;
}

object line_configuration:47 {
     conductor_B underground_line_conductor:7;
     conductor_N underground_line_conductor:7;
     spacing line_spacing:21;
}

object line_configuration:48 {
     conductor_A underground_line_conductor:9;
     conductor_N underground_line_conductor:9;
     spacing line_spacing:22;
}

object line_configuration:49 {
     conductor_B overhead_line_conductor:10;
     conductor_C overhead_line_conductor:10;
     conductor_N overhead_line_conductor:10;
     spacing line_spacing:18;
}

object line_configuration:50 {
     conductor_B underground_line_conductor:9;
     conductor_C underground_line_conductor:9;
     conductor_N underground_line_conductor:9;
     spacing line_spacing:18;
}

object line_configuration:51 {
     conductor_C underground_line_conductor:9;
     conductor_N underground_line_conductor:9;
     spacing line_spacing:20;
}

object line_configuration:52 {
     conductor_B underground_line_conductor:4;
     conductor_C underground_line_conductor:4;
     conductor_N underground_line_conductor:4;
     spacing line_spacing:18;
}

object line_configuration:53 {
     conductor_A underground_line_conductor:4;
     conductor_B underground_line_conductor:4;
     conductor_N underground_line_conductor:4;
     spacing line_spacing:19;
}

object line_configuration:54 {
     conductor_A underground_line_conductor:9;
     conductor_B underground_line_conductor:9;
     conductor_N underground_line_conductor:9;
     spacing line_spacing:19;
}

object line_configuration:55 {
     conductor_B overhead_line_conductor:8;
     conductor_N overhead_line_conductor:8;
     spacing line_spacing:21;
}

object line_configuration:56 {
     conductor_C overhead_line_conductor:3;
     conductor_N overhead_line_conductor:3;
     spacing line_spacing:20;
}

object line_configuration:57 {
     conductor_A overhead_line_conductor:12;
     conductor_B overhead_line_conductor:12;
     conductor_C overhead_line_conductor:12;
     conductor_N overhead_line_conductor:12;
     spacing line_spacing:16;
}

object line_configuration:58 {
     conductor_A underground_line_conductor:7;
     conductor_N underground_line_conductor:7;
     spacing line_spacing:22;
}

object line_configuration:59 {
     conductor_A overhead_line_conductor:10;
     conductor_B overhead_line_conductor:10;
     conductor_N overhead_line_conductor:10;
     spacing line_spacing:19;
}

object line_configuration:60 {
     conductor_A underground_line_conductor:13;
     conductor_B underground_line_conductor:13;
     conductor_C underground_line_conductor:13;
     conductor_N underground_line_conductor:13;
     spacing line_spacing:16;
}

object line_configuration:61 {
     conductor_A underground_line_conductor:13;
     conductor_B underground_line_conductor:13;
     conductor_C underground_line_conductor:13;
     conductor_N underground_line_conductor:13;
     spacing line_spacing:23;
}

object line_configuration:62 {
     conductor_A underground_line_conductor:14;
     conductor_B underground_line_conductor:14;
     conductor_C underground_line_conductor:14;
     conductor_N underground_line_conductor:14;
     spacing line_spacing:16;
}

object line_configuration:63 {
     conductor_A underground_line_conductor:7;
     conductor_C underground_line_conductor:7;
     conductor_N underground_line_conductor:7;
     spacing line_spacing:17;
}

object line_configuration:64 {
     conductor_A underground_line_conductor:7;
     conductor_B underground_line_conductor:7;
     conductor_N underground_line_conductor:7;
     spacing line_spacing:19;
}

object line_configuration:65 {
     conductor_A underground_line_conductor:9;
     conductor_B underground_line_conductor:9;
     conductor_C underground_line_conductor:9;
     conductor_N underground_line_conductor:9;
     spacing line_spacing:16;
}

object line_configuration:66 {
     conductor_A underground_line_conductor:15;
     conductor_B underground_line_conductor:15;
     conductor_C underground_line_conductor:15;
     conductor_N underground_line_conductor:15;
     spacing line_spacing:16;
}

object line_configuration:67 {
     conductor_B underground_line_conductor:14;
     conductor_N underground_line_conductor:14;
     spacing line_spacing:21;
}

object line_configuration:68 {
     conductor_A underground_line_conductor:14;
     conductor_C underground_line_conductor:14;
     conductor_N underground_line_conductor:14;
     spacing line_spacing:17;
}

object line_configuration:69 {
     conductor_C underground_line_conductor:14;
     conductor_N underground_line_conductor:14;
     spacing line_spacing:20;
}

object line_spacing:16 {
     distance_AB 37.0 in;
     distance_BC 37.0 in;
     distance_AC 37.0 in;
     distance_AN 37.0 in;
     distance_BN 37.0 in;
     distance_CN 37.0 in;
}

object line_spacing:17 {
     distance_AC 37.0 in;
     distance_AN 37.0 in;
     distance_CN 37.0 in;
}

object line_spacing:18 {
     distance_BC 37.0 in;
     distance_BN 37.0 in;
     distance_CN 37.0 in;
}

object line_spacing:19 {
     distance_AB 37.0 in;
     distance_AN 37.0 in;
     distance_BN 37.0 in;
}

object line_spacing:20 {
     distance_CN 37.0 in;
}

object line_spacing:21 {
     distance_BN 37.0 in;
}

object line_spacing:22 {
     distance_AN 37.0 in;
}

object line_spacing:23 {
     distance_AB 48.0 in;
     distance_BC 48.0 in;
     distance_AC 48.0 in;
     distance_AN 36.0 in;
     distance_BN 36.0 in;
     distance_CN 36.0 in;
}

object load:2070 {
     name R3-12-47-3_load_1;
     parent R3-12-47-3_meter_1;
     phases ABCN;
     voltage_A 7200+0.0j;
     voltage_B -3600-6235j;
     voltage_C -3600+6235j;
     constant_power_A 2102.3767+707.6037j;
     constant_power_B 2102.3767+707.6037j;
     constant_power_C 0+0j;
     nominal_voltage 480;
     load_class A;
}

object load:2071 {
     name R3-12-47-3_load_2;
     parent R3-12-47-3_meter_2;
     phases ABN;
     voltage_A 7200+0.0j;
     voltage_B -3600-6235j;
     constant_power_A 3478.3754+1170.728j;
     constant_power_B 3478.3754+1170.728j;
     nominal_voltage 480;
     load_class A;
}

object load:2072 {
     name R3-12-47-3_load_3;
     parent R3-12-47-3_meter_3;
     phases ABCN;
     voltage_A 7200+0.0j;
     voltage_B -3600-6235j;
     voltage_C -3600+6235j;
     constant_power_A 3478.3754+1170.728j;
     constant_power_B 3478.3754+1170.728j;
     constant_power_C 0+0j;
     nominal_voltage 480;
     load_class A;
}

object load:2073 {
     name R3-12-47-3_load_4;
     parent R3-12-47-3_meter_4;
     phases ABCN;
     voltage_A 7200+0.0j;
     voltage_B -3600-6235j;
     voltage_C -3600+6235j;
     constant_power_A 6956.7509+2341.4559j;
     constant_power_B 0+0j;
     constant_power_C 6956.7509+2341.4559j;
     nominal_voltage 480;
     load_class A;
}

object load:2074 {
     name R3-12-47-3_load_5;
     parent R3-12-47-3_meter_5;
     phases ABCN;
     voltage_A 7200+0.0j;
     voltage_B -3600-6235j;
     voltage_C -3600+6235j;
     constant_power_A 6956.7509+2341.4559j;
     constant_power_B 6956.7509+2341.4559j;
     constant_power_C 6956.7509+2341.4559j;
     nominal_voltage 480;
     load_class A;
}

object load:2075 {
     name R3-12-47-3_load_6;
     parent R3-12-47-3_meter_6;
     phases ACN;
     voltage_A 7200+0.0j;
     voltage_C -3600+6235j;
     constant_power_A 4190.0561+1410.2606j;
     constant_power_C 4190.0561+1410.2606j;
     nominal_voltage 480;
     load_class A;
}

object load:2076 {
     name R3-12-47-3_load_7;
     parent R3-12-47-3_meter_7;
     phases ACN;
     voltage_A 7200+0.0j;
     voltage_C -3600+6235j;
     constant_power_A 3478.3754+1170.728j;
     constant_power_C 3478.3754+1170.728j;
     nominal_voltage 480;
     load_class A;
}

object load:2077 {
     name R3-12-47-3_load_8;
     parent R3-12-47-3_meter_8;
     phases ABCN;
     voltage_A 7200+0.0j;
     voltage_B -3600-6235j;
     voltage_C -3600+6235j;
     constant_power_A 4190.0561+1410.2606j;
     constant_power_B 4190.0561+1410.2606j;
     constant_power_C 4190.0561+1410.2606j;
     nominal_voltage 480;
     load_class A;
}

object load:2078 {
     name R3-12-47-3_load_9;
     parent R3-12-47-3_meter_9;
     phases ACN;
     voltage_A 7200+0.0j;
     voltage_C -3600+6235j;
     constant_power_A 1376.0063+463.1269j;
     constant_power_C 1376.0063+463.1269j;
     nominal_voltage 480;
     load_class A;
}

object load:2079 {
     name R3-12-47-3_load_10;
     parent R3-12-47-3_meter_10;
     phases ACN;
     voltage_A 7200+0.0j;
     voltage_C -3600+6235j;
     constant_power_A 3478.3754+1170.728j;
     constant_power_C 3478.3754+1170.728j;
     nominal_voltage 480;
     load_class A;
}

object load:2080 {
     name R3-12-47-3_load_11;
     parent R3-12-47-3_meter_11;
     phases ACN;
     voltage_A 7200+0.0j;
     voltage_C -3600+6235j;
     constant_power_A 2102.3767+707.6037j;
     constant_power_C 2102.3767+707.6037j;
     nominal_voltage 480;
     load_class A;
}

object load:2081 {
     name R3-12-47-3_load_12;
     parent R3-12-47-3_meter_12;
     phases ACN;
     voltage_A 7200+0.0j;
     voltage_C -3600+6235j;
     constant_power_A 3478.3754+1170.728j;
     constant_power_C 3478.3754+1170.728j;
     nominal_voltage 480;
     load_class A;
}

object load:2082 {
     name R3-12-47-3_load_13;
     parent R3-12-47-3_meter_13;
     phases ACN;
     voltage_A 7200+0.0j;
     voltage_C -3600+6235j;
     constant_power_A 1376.0063+463.1269j;
     constant_power_C 1376.0063+463.1269j;
     nominal_voltage 480;
     load_class A;
}

object load:2083 {
     name R3-12-47-3_load_14;
     parent R3-12-47-3_meter_14;
     phases ACN;
     voltage_A 7200+0.0j;
     voltage_C -3600+6235j;
     constant_power_A 3478.3754+1170.728j;
     constant_power_C 3478.3754+1170.728j;
     nominal_voltage 480;
     load_class A;
}

object load:2084 {
     name R3-12-47-3_load_15;
     parent R3-12-47-3_meter_15;
     phases ABCN;
     voltage_A 7200+0.0j;
     voltage_B -3600-6235j;
     voltage_C -3600+6235j;
     constant_power_A 1376.0063+463.1269j;
     constant_power_B 0+0j;
     constant_power_C 1376.0063+463.1269j;
     nominal_voltage 480;
     load_class A;
}

object load:2085 {
     name R3-12-47-3_load_16;
     parent R3-12-47-3_meter_16;
     phases ACN;
     voltage_A 7200+0.0j;
     voltage_C -3600+6235j;
     constant_power_A 6956.7509+2341.4559j;
     constant_power_C 6956.7509+2341.4559j;
     nominal_voltage 480;
     load_class A;
}

object load:2086 {
     name R3-12-47-3_load_17;
     parent R3-12-47-3_meter_17;
     phases ACN;
     voltage_A 7200+0.0j;
     voltage_C -3600+6235j;
     constant_power_A 6964.1087+2343.9324j;
     constant_power_C 6964.1087+2343.9324j;
     nominal_voltage 480;
     load_class A;
}

object load:2087 {
     name R3-12-47-3_load_18;
     parent R3-12-47-3_meter_18;
     phases ACN;
     voltage_A 7200+0.0j;
     voltage_C -3600+6235j;
     constant_power_A 10458.7835+3520.1463j;
     constant_power_C 10458.7835+3520.1463j;
     nominal_voltage 480;
     load_class A;
}

object load:2088 {
     name R3-12-47-3_load_19;
     parent R3-12-47-3_meter_19;
     phases ACN;
     voltage_A 7200+0.0j;
     voltage_C -3600+6235j;
     constant_power_A 3478.3754+1170.728j;
     constant_power_C 3478.3754+1170.728j;
     nominal_voltage 480;
     load_class A;
}

object load:2089 {
     name R3-12-47-3_load_20;
     parent R3-12-47-3_meter_20;
     phases ACN;
     voltage_A 7200+0.0j;
     voltage_C -3600+6235j;
     constant_power_A 3478.3754+1170.728j;
     constant_power_C 3478.3754+1170.728j;
     nominal_voltage 480;
     load_class A;
}

object load:2090 {
     name R3-12-47-3_load_21;
     parent R3-12-47-3_meter_21;
     phases ACN;
     voltage_A 7200+0.0j;
     voltage_C -3600+6235j;
     constant_power_A 3478.3754+1170.728j;
     constant_power_C 3478.3754+1170.728j;
     nominal_voltage 480;
     load_class A;
}

object load:2091 {
     name R3-12-47-3_load_22;
     parent R3-12-47-3_meter_22;
     phases ACN;
     voltage_A 7200+0.0j;
     voltage_C -3600+6235j;
     constant_power_A 3478.3754+1170.728j;
     constant_power_C 3478.3754+1170.728j;
     nominal_voltage 480;
     load_class A;
}

object load:2092 {
     name R3-12-47-3_load_23;
     parent R3-12-47-3_meter_23;
     phases ACN;
     voltage_A 7200+0.0j;
     voltage_C -3600+6235j;
     constant_power_A 3478.3754+1170.728j;
     constant_power_C 3478.3754+1170.728j;
     nominal_voltage 480;
     load_class A;
}

object load:2093 {
     name R3-12-47-3_load_24;
     parent R3-12-47-3_meter_24;
     phases ACN;
     voltage_A 7200+0.0j;
     voltage_C -3600+6235j;
     constant_power_A 3478.3754+1170.728j;
     constant_power_C 3478.3754+1170.728j;
     nominal_voltage 480;
     load_class A;
}

object load:2094 {
     name R3-12-47-3_load_25;
     parent R3-12-47-3_meter_25;
     phases ACN;
     voltage_A 7200+0.0j;
     voltage_C -3600+6235j;
     constant_power_A 3478.3754+1170.728j;
     constant_power_C 3478.3754+1170.728j;
     nominal_voltage 480;
     load_class A;
}

object load:2095 {
     name R3-12-47-3_load_26;
     parent R3-12-47-3_meter_26;
     phases ACN;
     voltage_A 7200+0.0j;
     voltage_C -3600+6235j;
     constant_power_A 3482.0544+1171.9662j;
     constant_power_C 3482.0544+1171.9662j;
     nominal_voltage 480;
     load_class A;
}

object load:2096 {
     name R3-12-47-3_load_27;
     parent R3-12-47-3_meter_27;
     phases ACN;
     voltage_A 7200+0.0j;
     voltage_C -3600+6235j;
     constant_power_A 1376.0063+463.1269j;
     constant_power_C 1376.0063+463.1269j;
     nominal_voltage 480;
     load_class A;
}

object load:2097 {
     name R3-12-47-3_load_28;
     parent R3-12-47-3_meter_28;
     phases ACN;
     voltage_A 7200+0.0j;
     voltage_C -3600+6235j;
     constant_power_A 3478.3754+1170.728j;
     constant_power_C 3478.3754+1170.728j;
     nominal_voltage 480;
     load_class A;
}

object load:2098 {
     name R3-12-47-3_load_29;
     parent R3-12-47-3_meter_29;
     phases ACN;
     voltage_A 7200+0.0j;
     voltage_C -3600+6235j;
     constant_power_A 10458.7835+3520.1463j;
     constant_power_C 10458.7835+3520.1463j;
     nominal_voltage 480;
     load_class A;
}

object load:2099 {
     name R3-12-47-3_load_30;
     parent R3-12-47-3_meter_30;
     phases ACN;
     voltage_A 7200+0.0j;
     voltage_C -3600+6235j;
     constant_power_A 3478.3754+1170.728j;
     constant_power_C 3478.3754+1170.728j;
     nominal_voltage 480;
     load_class A;
}

object load:2100 {
     name R3-12-47-3_load_31;
     parent R3-12-47-3_meter_31;
     phases ACN;
     voltage_A 7200+0.0j;
     voltage_C -3600+6235j;
     constant_power_A 3478.3754+1170.728j;
     constant_power_C 3478.3754+1170.728j;
     nominal_voltage 480;
     load_class A;
}

object load:2101 {
     name R3-12-47-3_load_32;
     parent R3-12-47-3_meter_32;
     phases ACN;
     voltage_A 7200+0.0j;
     voltage_C -3600+6235j;
     constant_power_A 3478.3754+1170.728j;
     constant_power_C 3478.3754+1170.728j;
     nominal_voltage 480;
     load_class A;
}

object load:2102 {
     name R3-12-47-3_load_33;
     parent R3-12-47-3_meter_33;
     phases ACN;
     voltage_A 7200+0.0j;
     voltage_C -3600+6235j;
     constant_power_A 3478.3754+1170.728j;
     constant_power_C 3478.3754+1170.728j;
     nominal_voltage 480;
     load_class A;
}

object load:2103 {
     name R3-12-47-3_load_34;
     parent R3-12-47-3_meter_34;
     phases ABCN;
     voltage_A 7200+0.0j;
     voltage_B -3600-6235j;
     voltage_C -3600+6235j;
     constant_power_A 3478.3754+1170.728j;
     constant_power_B 3478.3754+1170.728j;
     constant_power_C 0+0j;
     nominal_voltage 480;
     load_class A;
}

object load:2104 {
     name R3-12-47-3_load_35;
     parent R3-12-47-3_meter_35;
     phases ACN;
     voltage_A 7200+0.0j;
     voltage_C -3600+6235j;
     constant_power_A 3478.3754+1170.728j;
     constant_power_C 3478.3754+1170.728j;
     nominal_voltage 480;
     load_class A;
}

object load:2105 {
     name R3-12-47-3_load_36;
     parent R3-12-47-3_meter_36;
     phases ACN;
     voltage_A 7200+0.0j;
     voltage_C -3600+6235j;
     constant_power_A 3478.3754+1170.728j;
     constant_power_C 3478.3754+1170.728j;
     nominal_voltage 480;
     load_class A;
}

object load:2106 {
     name R3-12-47-3_load_37;
     parent R3-12-47-3_meter_37;
     phases ABCN;
     voltage_A 7200+0.0j;
     voltage_B -3600-6235j;
     voltage_C -3600+6235j;
     constant_power_A 6956.7509+2341.4559j;
     constant_power_B 0+0j;
     constant_power_C 6956.7509+2341.4559j;
     nominal_voltage 480;
     load_class A;
}

object load:2107 {
     name R3-12-47-3_load_38;
     parent R3-12-47-3_meter_38;
     phases ABCN;
     voltage_A 7200+0.0j;
     voltage_B -3600-6235j;
     voltage_C -3600+6235j;
     constant_power_A 4190.0561+1410.2606j;
     constant_power_B 4190.0561+1410.2606j;
     constant_power_C 4190.0561+1410.2606j;
     nominal_voltage 480;
     load_class A;
}

object load:2108 {
     name R3-12-47-3_load_39;
     parent R3-12-47-3_meter_39;
     phases ABN;
     voltage_A 7200+0.0j;
     voltage_B -3600-6235j;
     constant_power_A 3478.3754+1170.728j;
     constant_power_B 3478.3754+1170.728j;
     nominal_voltage 480;
     load_class A;
}

object load:2109 {
     name R3-12-47-3_load_40;
     parent R3-12-47-3_meter_40;
     phases ABCN;
     voltage_A 7200+0.0j;
     voltage_B -3600-6235j;
     voltage_C -3600+6235j;
     constant_power_A 3478.3754+1170.728j;
     constant_power_B 0+0j;
     constant_power_C 3478.3754+1170.728j;
     nominal_voltage 480;
     load_class A;
}

object load:2110 {
     name R3-12-47-3_load_41;
     parent R3-12-47-3_meter_41;
     phases ABCN;
     voltage_A 7200+0.0j;
     voltage_B -3600-6235j;
     voltage_C -3600+6235j;
     constant_power_A 1376.0063+463.1269j;
     constant_power_B 0+0j;
     constant_power_C 1376.0063+463.1269j;
     nominal_voltage 480;
     load_class A;
}

object load:2111 {
     name R3-12-47-3_load_42;
     parent R3-12-47-3_meter_42;
     phases ABCN;
     voltage_A 7200+0.0j;
     voltage_B -3600-6235j;
     voltage_C -3600+6235j;
     constant_power_A 3478.3754+1170.728j;
     constant_power_B 0+0j;
     constant_power_C 3478.3754+1170.728j;
     nominal_voltage 480;
     load_class A;
}

object load:2112 {
     name R3-12-47-3_load_43;
     parent R3-12-47-3_meter_43;
     phases ABCN;
     voltage_A 7200+0.0j;
     voltage_B -3600-6235j;
     voltage_C -3600+6235j;
     constant_power_A 13922.4777+4685.9329j;
     constant_power_B 13922.4777+4685.9329j;
     constant_power_C 13922.4777+4685.9329j;
     nominal_voltage 480;
     load_class A;
}

object load:2113 {
     name R3-12-47-3_load_44;
     parent R3-12-47-3_meter_44;
     phases ABN;
     voltage_A 7200+0.0j;
     voltage_B -3600-6235j;
     constant_power_A 3478.3754+1170.728j;
     constant_power_B 3478.3754+1170.728j;
     nominal_voltage 480;
     load_class A;
}

object load:2114 {
     name R3-12-47-3_load_45;
     parent R3-12-47-3_meter_45;
     phases ABCN;
     voltage_A 7200+0.0j;
     voltage_B -3600-6235j;
     voltage_C -3600+6235j;
     constant_power_A 3478.3754+1170.728j;
     constant_power_B 0+0j;
     constant_power_C 3478.3754+1170.728j;
     nominal_voltage 480;
     load_class A;
}

object load:2115 {
     name R3-12-47-3_load_46;
     parent R3-12-47-3_meter_46;
     phases ABCN;
     voltage_A 7200+0.0j;
     voltage_B -3600-6235j;
     voltage_C -3600+6235j;
     constant_power_A 0+0j;
     constant_power_B 3478.3754+1170.728j;
     constant_power_C 3478.3754+1170.728j;
     nominal_voltage 480;
     load_class A;
}

object load:2116 {
     name R3-12-47-3_load_47;
     parent R3-12-47-3_meter_47;
     phases ABCN;
     voltage_A 7200+0.0j;
     voltage_B -3600-6235j;
     voltage_C -3600+6235j;
     constant_power_A 1376.0063+463.1269j;
     constant_power_B 0+0j;
     constant_power_C 1376.0063+463.1269j;
     nominal_voltage 480;
     load_class A;
}

object load:2117 {
     name R3-12-47-3_load_48;
     parent R3-12-47-3_meter_48;
     phases ABCN;
     voltage_A 7200+0.0j;
     voltage_B -3600-6235j;
     voltage_C -3600+6235j;
     constant_power_A 0+0j;
     constant_power_B 2102.3767+707.6037j;
     constant_power_C 2102.3767+707.6037j;
     nominal_voltage 480;
     load_class A;
}

object load:2118 {
     name R3-12-47-3_load_49;
     parent R3-12-47-3_meter_49;
     phases ABCN;
     voltage_A 7200+0.0j;
     voltage_B -3600-6235j;
     voltage_C -3600+6235j;
     constant_power_A 3478.3754+1170.728j;
     constant_power_B 0+0j;
     constant_power_C 3478.3754+1170.728j;
     nominal_voltage 480;
     load_class A;
}

object load:2119 {
     name R3-12-47-3_load_50;
     parent R3-12-47-3_meter_50;
     phases ABCN;
     voltage_A 7200+0.0j;
     voltage_B -3600-6235j;
     voltage_C -3600+6235j;
     constant_power_A 3478.3754+1170.728j;
     constant_power_B 0+0j;
     constant_power_C 3478.3754+1170.728j;
     nominal_voltage 480;
     load_class A;
}

object load:2120 {
     name R3-12-47-3_load_51;
     parent R3-12-47-3_meter_51;
     phases ABCN;
     voltage_A 7200+0.0j;
     voltage_B -3600-6235j;
     voltage_C -3600+6235j;
     constant_power_A 0+0j;
     constant_power_B 3478.3754+1170.728j;
     constant_power_C 3478.3754+1170.728j;
     nominal_voltage 480;
     load_class A;
}

object load:2121 {
     name R3-12-47-3_load_52;
     parent R3-12-47-3_meter_52;
     phases ABCN;
     voltage_A 7200+0.0j;
     voltage_B -3600-6235j;
     voltage_C -3600+6235j;
     constant_power_A 0+0j;
     constant_power_B 3478.3754+1170.728j;
     constant_power_C 3478.3754+1170.728j;
     nominal_voltage 480;
     load_class A;
}

object load:2122 {
     name R3-12-47-3_load_53;
     parent R3-12-47-3_meter_53;
     phases ABCN;
     voltage_A 7200+0.0j;
     voltage_B -3600-6235j;
     voltage_C -3600+6235j;
     constant_power_A 2790.3751+939.1655j;
     constant_power_B 2790.3751+939.1655j;
     constant_power_C 2790.3751+939.1655j;
     nominal_voltage 480;
     load_class A;
}

object load:2123 {
     name R3-12-47-3_load_54;
     parent R3-12-47-3_meter_54;
     phases ABCN;
     voltage_A 7200+0.0j;
     voltage_B -3600-6235j;
     voltage_C -3600+6235j;
     constant_power_A 0+0j;
     constant_power_B 3478.3754+1170.728j;
     constant_power_C 3478.3754+1170.728j;
     nominal_voltage 480;
     load_class A;
}

object load:2124 {
     name R3-12-47-3_load_55;
     parent R3-12-47-3_meter_55;
     phases ABCN;
     voltage_A 7200+0.0j;
     voltage_B -3600-6235j;
     voltage_C -3600+6235j;
     constant_power_A 0+0j;
     constant_power_B 2102.3767+707.6037j;
     constant_power_C 2102.3767+707.6037j;
     nominal_voltage 480;
     load_class A;
}

object load:2125 {
     name R3-12-47-3_load_56;
     parent R3-12-47-3_meter_56;
     phases CN;
     voltage_C -3600+6235j;
     constant_power_C 6956.7509+2341.4559j;
     nominal_voltage 480;
     load_class A;
}

object load:2126 {
     name R3-12-47-3_load_57;
     parent R3-12-47-3_meter_57;
     phases BN;
     voltage_B -3600-6235j;
     constant_power_B 6956.7509+2341.4559j;
     nominal_voltage 480;
     load_class A;
}

object load:2127 {
     name R3-12-47-3_load_58;
     parent R3-12-47-3_meter_58;
     phases BN;
     voltage_B -3600-6235j;
     constant_power_B 6956.7509+2341.4559j;
     nominal_voltage 480;
     load_class A;
}

object load:2128 {
     name R3-12-47-3_load_59;
     parent R3-12-47-3_meter_59;
     phases ABN;
     voltage_A 7200+0.0j;
     voltage_B -3600-6235j;
     constant_power_A 6956.7509+2341.4559j;
     constant_power_B 6956.7509+2341.4559j;
     nominal_voltage 480;
     load_class A;
}

object load:2129 {
     name R3-12-47-3_load_60;
     parent R3-12-47-3_meter_60;
     phases ABCN;
     voltage_A 7200+0.0j;
     voltage_B -3600-6235j;
     voltage_C -3600+6235j;
     constant_power_A 3478.3754+1170.728j;
     constant_power_B 0+0j;
     constant_power_C 3478.3754+1170.728j;
     nominal_voltage 480;
     load_class A;
}

object load:2130 {
     name R3-12-47-3_load_61;
     parent R3-12-47-3_meter_61;
     phases ABN;
     voltage_A 7200+0.0j;
     voltage_B -3600-6235j;
     constant_power_A 3478.3754+1170.728j;
     constant_power_B 3478.3754+1170.728j;
     nominal_voltage 480;
     load_class A;
}

object load:2131 {
     name R3-12-47-3_load_62;
     parent R3-12-47-3_meter_62;
     phases ABN;
     voltage_A 7200+0.0j;
     voltage_B -3600-6235j;
     constant_power_A 3478.3754+1170.728j;
     constant_power_B 3478.3754+1170.728j;
     nominal_voltage 480;
     load_class A;
}

object load:2132 {
     name R3-12-47-3_load_63;
     parent R3-12-47-3_meter_63;
     phases ABCN;
     voltage_A 7200+0.0j;
     voltage_B -3600-6235j;
     voltage_C -3600+6235j;
     constant_power_A 2790.3751+939.1655j;
     constant_power_B 2790.3751+939.1655j;
     constant_power_C 2790.3751+939.1655j;
     nominal_voltage 480;
     load_class A;
}

object load:2133 {
     name R3-12-47-3_load_64;
     parent R3-12-47-3_meter_64;
     phases ABCN;
     voltage_A 7200+0.0j;
     voltage_B -3600-6235j;
     voltage_C -3600+6235j;
     constant_power_A 0+0j;
     constant_power_B 3478.3754+1170.728j;
     constant_power_C 3478.3754+1170.728j;
     nominal_voltage 480;
     load_class A;
}

object load:2134 {
     name R3-12-47-3_load_65;
     parent R3-12-47-3_meter_65;
     phases ACN;
     voltage_A 7200+0.0j;
     voltage_C -3600+6235j;
     constant_power_A 3478.3754+1170.728j;
     constant_power_C 3478.3754+1170.728j;
     nominal_voltage 480;
     load_class A;
}

object load:2135 {
     name R3-12-47-3_load_66;
     parent R3-12-47-3_meter_66;
     phases ABN;
     voltage_A 7200+0.0j;
     voltage_B -3600-6235j;
     constant_power_A 3478.3754+1170.728j;
     constant_power_B 3478.3754+1170.728j;
     nominal_voltage 480;
     load_class A;
}

object load:2136 {
     name R3-12-47-3_load_67;
     parent R3-12-47-3_meter_67;
     phases ABN;
     voltage_A 7200+0.0j;
     voltage_B -3600-6235j;
     constant_power_A 2102.3767+707.6037j;
     constant_power_B 2102.3767+707.6037j;
     nominal_voltage 480;
     load_class A;
}

object load:2137 {
     name R3-12-47-3_load_68;
     parent R3-12-47-3_meter_68;
     phases ABN;
     voltage_A 7200+0.0j;
     voltage_B -3600-6235j;
     constant_power_A 3478.3754+1170.728j;
     constant_power_B 3478.3754+1170.728j;
     nominal_voltage 480;
     load_class A;
}

object load:2138 {
     name R3-12-47-3_load_69;
     parent R3-12-47-3_meter_69;
     phases BCN;
     voltage_B -3600-6235j;
     voltage_C -3600+6235j;
     constant_power_B 3478.3754+1170.728j;
     constant_power_C 3478.3754+1170.728j;
     nominal_voltage 480;
     load_class A;
}

object load:2139 {
     name R3-12-47-3_load_70;
     parent R3-12-47-3_meter_70;
     phases ABCN;
     voltage_A 7200+0.0j;
     voltage_B -3600-6235j;
     voltage_C -3600+6235j;
     constant_power_A 6956.7509+2341.4559j;
     constant_power_B 6956.7509+2341.4559j;
     constant_power_C 6956.7509+2341.4559j;
     nominal_voltage 480;
     load_class A;
}

object load:2140 {
     name R3-12-47-3_load_71;
     parent R3-12-47-3_meter_71;
     phases ABCN;
...